ROMS/TOMS Framework: October 15, 2014
===================

Copyright (c) 2002-2014 The ROMS/TOMS Group
  Licensed under a MIT/X style license
  See License_ROMS.txt

svn: $HeadURL: https://www.myroms.org/svn/src/trunk/ROMS/Version $
svn: $LastChangedBy: arango $
svn: $LastChangedRevision: 741 $
svn: $LastChangedDate: 2014-10-15 21:05:43 +0000 (Wed, 15 Oct 2014) $